[00:26:25][66.249.64.222]>  [ID::] acessou o cadastro de HAITI [ID::1136]  
[00:26:34][66.249.64.214]>  [ID::] acessou o cadastro de JOAQUIM TAVORA [ID::1029]  
[00:26:44][66.249.64.214]>  [ID::] acessou o cadastro de TELEMACO BORBA - CE [ID::1126]  
[00:26:50][66.249.64.214]>  [ID::] acessou o cadastro de SANTOS-CE [ID::1242]  
[00:54:42][66.249.64.214]>  [ID::] acessou o cadastro de MATÃO [ID::1090]  
[01:27:13][66.249.64.214]>  [ID::] acessou o cadastro de JANDAIA DO SUL [ID::1181]  
[02:00:10][66.249.64.222]>  [ID::] acessou o cadastro de NATAL / PLANALTO [ID::985]  
[02:40:56][66.249.64.214]> #### Acesso não autorizado ###### 
[02:40:56][66.249.64.214]> Algum usuario não identificado tentou acessar a /listar-extrato.php 
[02:40:56][66.249.64.214]> # ------------------------------------------------------>  
[02:43:01][66.249.64.214]>  [ID::] acessou o cadastro de ITAJAI [ID::1129]  
[02:44:51][66.249.64.218]>  [ID::] acessou o cadastro de CURITIBA - VILA 7 DE SETEMBRO [ID::960]  
[07:21:16][66.249.64.214]>  [ID::] acessou o cadastro de JA&Ccedil;ANA [ID::1103]  
[07:46:14][66.249.64.214]>  [ID::] acessou o cadastro de RIO NEGRINHO [ID::1031]  
[11:02:05][40.77.167.73]> #### Acesso não autorizado ###### 
[11:02:05][40.77.167.73]> Algum usuario não identificado tentou acessar a /lancamentos-campo.php?id=1232 
[11:02:05][40.77.167.73]> # ------------------------------------------------------>  
[15:14:04][189.15.225.28]>  [ID::] acessou o cadastro de ITUMBIARA [ID::891]  
[15:15:09][189.15.184.27]>  [ID::] acessou o cadastro de ITUMBIARA [ID::891]  
[18:08:05][66.249.64.214]> #### Acesso não autorizado ###### 
[18:08:05][66.249.64.214]> Algum usuario não identificado tentou acessar a /lancamentos-campo.php?id=1002 
[18:08:05][66.249.64.214]> # ------------------------------------------------------>  
[21:25:04][157.55.39.11]> #### Acesso não autorizado ###### 
[21:25:04][157.55.39.11]> Algum usuario não identificado tentou acessar a /lancamentos-campo.php?id=1049 
[21:25:04][157.55.39.11]> # ------------------------------------------------------>  
