[09:15:59][177.45.241.232]> Aux Financeiro [8] fez o login no sistema. 
[09:34:43][177.45.241.232]> Aux Financeiro [8] acessou listagem de campos . 
[10:10:23][177.45.241.232]> Aux Financeiro [8] acessou as remessas do campo 1212 . 
[10:10:30][177.45.241.232]> Aux Financeiro [8] acessou listagem de campos . 
[10:13:23][177.45.241.232]> Aux Financeiro [8] acessou as remessas do campo 1030 . 
[10:13:30][177.45.241.232]> Aux Financeiro [8] acessou listagem de campos . 
[10:14:35][177.45.241.232]> Aux Financeiro [8] acessou as remessas do campo 1212 . 
[10:16:53][177.45.241.232]> Aux Financeiro [8] acessou listagem de campos . 
[10:17:10][177.45.241.232]> Aux Financeiro [8] acessou as remessas do campo 1138 . 
[10:18:08][177.45.241.232]> Aux Financeiro [8] acessou listagem de campos . 
[10:18:13][177.45.241.232]> Aux Financeiro [8] acessou as remessas do campo 898 . 
[10:18:26][177.45.241.232]> Aux Financeiro [8] acessou as remessas do campo 898 . 
[10:18:33][177.45.241.232]> Aux Financeiro [8] acessou as remessas do campo 898 . 
[10:18:40][177.45.241.232]> Aux Financeiro [8] acessou listagem de campos . 
[10:18:49][177.45.241.232]> Aux Financeiro [8] acessou as remessas do campo 1030 . 
[10:45:58][177.45.241.232]> Aux Financeiro [8] acessou listagem de campos . 
[10:46:12][177.45.241.232]> Aux Financeiro [ID::8] acessou o cadastro de TELEMACO BORBA - CE [ID::1126]  
[10:46:15][177.45.241.232]> Aux Financeiro [8] acessou listagem de campos . 
[11:21:54][177.45.241.232]> Aux Financeiro [8] acessou as remessas do campo 1004 . 
[13:45:15][177.45.241.232]> Aux Financeiro [8] acessou listagem de campos . 
[13:45:27][177.45.241.232]> Aux Financeiro [8] acessou as remessas do campo 1037 . 
[13:45:30][177.45.241.232]> Aux Financeiro [8] acessou listagem de campos . 
[14:07:48][177.45.241.232]> Aux Financeiro [8] acessou as remessas do campo 1149 . 
[14:07:51][177.45.241.232]> Aux Financeiro [8] acessou as remessas do campo 1149 . 
[14:07:55][177.45.241.232]> Aux Financeiro [8] acessou as remessas do campo 1149 . 
[14:14:27][177.45.241.232]> Aux Financeiro [8] acessou listagem de campos . 
[14:14:36][177.45.241.232]> Aux Financeiro [8] acessou as remessas do campo 987 . 
[14:15:06][177.45.241.232]> Aux Financeiro [8] acessou listagem de campos . 
[14:15:11][177.45.241.232]> Aux Financeiro [8] acessou as remessas do campo 935 . 
[14:15:14][177.45.241.232]> Aux Financeiro [8] acessou listagem de campos . 
[14:15:30][177.45.241.232]> Aux Financeiro [8] acessou as remessas do campo 1155 . 
[14:15:39][177.45.241.232]> Aux Financeiro [8] acessou listagem de campos . 
[15:19:01][177.45.241.232]> Aux Financeiro [8] acessou as remessas do campo 1016 . 
[15:19:36][177.45.241.232]> Aux Financeiro [8] acessou as remessas do campo 1016 . 
[15:26:29][177.45.241.232]> Aux Financeiro [8] acessou as remessas do campo 1016 . 
[15:28:30][177.45.241.232]> Aux Financeiro [8] acessou listagem de campos . 
[15:31:18][177.45.241.232]> Aux Financeiro [8] acessou listagem de campos . 
[15:32:00][177.45.241.232]> Aux Financeiro [8] acessou listagem de campos . 
[17:12:24][177.45.241.232]> Aux Financeiro [8] saiu do sistema . 
